Circuit: * C:\Users\Stephen\Documents\Projects\KiCad\getting-to-blinky\spice\getting-to-blinky.asc

WARNING: Less than two connections to node NC_02.  This node is used by S:U1:1.
Direct Newton iteration for .op point succeeded.

Date: Fri May 12 11:42:16 2017
Total elapsed time: 0.247 seconds.

tnom = 27
temp = 27
method = modified trap
totiter = 8600
traniter = 8587
tranpoints = 2439
accept = 2105
rejected = 334
matrix size = 16
fillins = 0
solver = Normal
Matrix Compiler1: 466 bytes object code size  0.4/0.2/[0.2]
Matrix Compiler2: off  [0.2]/0.5/0.4

